OpenDSS_Script/Scenario_5_or_9_PV_System_Definition_PV.txt
New PVSystem.PV_SYS_1 phases=1 bus1=34.1 kV=0.23 kVA=1.9994 irradiance=1 Pmpp=1.9994 %cutin=0.1 %cutout=0.1 yearly=PV_1
New PVSystem.PV_SYS_2 phases=1 bus1=47.2 kV=0.23 kVA=1.9994 irradiance=1 Pmpp=1.9994 %cutin=0.1 %cutout=0.1 yearly=PV_2
New PVSystem.PV_SYS_3 phases=1 bus1=70.1 kV=0.23 kVA=1.9994 irradiance=1 Pmpp=1.9994 %cutin=0.1 %cutout=0.1 yearly=PV_3
New PVSystem.PV_SYS_4 phases=1 bus1=73.1 kV=0.23 kVA=1.9994 irradiance=1 Pmpp=1.9994 %cutin=0.1 %cutout=0.1 yearly=PV_4
New PVSystem.PV_SYS_5 phases=1 bus1=74.1 kV=0.23 kVA=1.9994 irradiance=1 Pmpp=1.9994 %cutin=0.1 %cutout=0.1 yearly=PV_5
New PVSystem.PV_SYS_6 phases=1 bus1=83.2 kV=0.23 kVA=1.9994 irradiance=1 Pmpp=1.9994 %cutin=0.1 %cutout=0.1 yearly=PV_6
New PVSystem.PV_SYS_7 phases=1 bus1=178.2 kV=0.23 kVA=1.9994 irradiance=1 Pmpp=1.9994 %cutin=0.1 %cutout=0.1 yearly=PV_7
New PVSystem.PV_SYS_8 phases=1 bus1=208.3 kV=0.23 kVA=1.9994 irradiance=1 Pmpp=1.9994 %cutin=0.1 %cutout=0.1 yearly=PV_8
New PVSystem.PV_SYS_9 phases=1 bus1=225.1 kV=0.23 kVA=1.9994 irradiance=1 Pmpp=1.9994 %cutin=0.1 %cutout=0.1 yearly=PV_9
New PVSystem.PV_SYS_10 phases=1 bus1=248.2 kV=0.23 kVA=1.9994 irradiance=1 Pmpp=1.9994 %cutin=0.1 %cutout=0.1 yearly=PV_10
New PVSystem.PV_SYS_11 phases=1 bus1=249.2 kV=0.23 kVA=1.9994 irradiance=1 Pmpp=1.9994 %cutin=0.1 %cutout=0.1 yearly=PV_11
New PVSystem.PV_SYS_12 phases=1 bus1=264.3 kV=0.23 kVA=1.9994 irradiance=1 Pmpp=1.9994 %cutin=0.1 %cutout=0.1 yearly=PV_12
New PVSystem.PV_SYS_13 phases=1 bus1=276.2 kV=0.23 kVA=1.9994 irradiance=1 Pmpp=1.9994 %cutin=0.1 %cutout=0.1 yearly=PV_13
New PVSystem.PV_SYS_14 phases=1 bus1=289.1 kV=0.23 kVA=1.9994 irradiance=1 Pmpp=1.9994 %cutin=0.1 %cutout=0.1 yearly=PV_14
New PVSystem.PV_SYS_15 phases=1 bus1=314.2 kV=0.23 kVA=1.9994 irradiance=1 Pmpp=1.9994 %cutin=0.1 %cutout=0.1 yearly=PV_15
New PVSystem.PV_SYS_16 phases=1 bus1=320.3 kV=0.23 kVA=1.9994 irradiance=1 Pmpp=1.9994 %cutin=0.1 %cutout=0.1 yearly=PV_16
New PVSystem.PV_SYS_17 phases=1 bus1=327.3 kV=0.23 kVA=1.9994 irradiance=1 Pmpp=1.9994 %cutin=0.1 %cutout=0.1 yearly=PV_17
New PVSystem.PV_SYS_18 phases=1 bus1=337.3 kV=0.23 kVA=1.9994 irradiance=1 Pmpp=1.9994 %cutin=0.1 %cutout=0.1 yearly=PV_18
New PVSystem.PV_SYS_19 phases=1 bus1=342.3 kV=0.23 kVA=1.9994 irradiance=1 Pmpp=1.9994 %cutin=0.1 %cutout=0.1 yearly=PV_19
New PVSystem.PV_SYS_20 phases=1 bus1=349.1 kV=0.23 kVA=1.9994 irradiance=1 Pmpp=1.9994 %cutin=0.1 %cutout=0.1 yearly=PV_20
New PVSystem.PV_SYS_21 phases=1 bus1=387.1 kV=0.23 kVA=1.9994 irradiance=1 Pmpp=1.9994 %cutin=0.1 %cutout=0.1 yearly=PV_21
New PVSystem.PV_SYS_22 phases=1 bus1=388.1 kV=0.23 kVA=1.9994 irradiance=1 Pmpp=1.9994 %cutin=0.1 %cutout=0.1 yearly=PV_22
New PVSystem.PV_SYS_23 phases=1 bus1=406.2 kV=0.23 kVA=1.9994 irradiance=1 Pmpp=1.9994 %cutin=0.1 %cutout=0.1 yearly=PV_23
New PVSystem.PV_SYS_24 phases=1 bus1=458.3 kV=0.23 kVA=1.9994 irradiance=1 Pmpp=1.9994 %cutin=0.1 %cutout=0.1 yearly=PV_24
New PVSystem.PV_SYS_25 phases=1 bus1=502.1 kV=0.23 kVA=1.9994 irradiance=1 Pmpp=1.9994 %cutin=0.1 %cutout=0.1 yearly=PV_25
New PVSystem.PV_SYS_26 phases=1 bus1=522.2 kV=0.23 kVA=1.9994 irradiance=1 Pmpp=1.9994 %cutin=0.1 %cutout=0.1 yearly=PV_26
New PVSystem.PV_SYS_27 phases=1 bus1=539.3 kV=0.23 kVA=1.9994 irradiance=1 Pmpp=1.9994 %cutin=0.1 %cutout=0.1 yearly=PV_27
New PVSystem.PV_SYS_28 phases=1 bus1=556.3 kV=0.23 kVA=1.9994 irradiance=1 Pmpp=1.9994 %cutin=0.1 %cutout=0.1 yearly=PV_28
New PVSystem.PV_SYS_29 phases=1 bus1=562.1 kV=0.23 kVA=1.9994 irradiance=1 Pmpp=1.9994 %cutin=0.1 %cutout=0.1 yearly=PV_29
New PVSystem.PV_SYS_30 phases=1 bus1=563.1 kV=0.23 kVA=1.9994 irradiance=1 Pmpp=1.9994 %cutin=0.1 %cutout=0.1 yearly=PV_30
New PVSystem.PV_SYS_31 phases=1 bus1=611.1 kV=0.23 kVA=1.9994 irradiance=1 Pmpp=1.9994 %cutin=0.1 %cutout=0.1 yearly=PV_31
New PVSystem.PV_SYS_32 phases=1 bus1=614.3 kV=0.23 kVA=1.9994 irradiance=1 Pmpp=1.9994 %cutin=0.1 %cutout=0.1 yearly=PV_32
New PVSystem.PV_SYS_33 phases=1 bus1=619.3 kV=0.23 kVA=1.9994 irradiance=1 Pmpp=1.9994 %cutin=0.1 %cutout=0.1 yearly=PV_33
New PVSystem.PV_SYS_34 phases=1 bus1=629.1 kV=0.23 kVA=1.9994 irradiance=1 Pmpp=1.9994 %cutin=0.1 %cutout=0.1 yearly=PV_34
New PVSystem.PV_SYS_35 phases=1 bus1=639.2 kV=0.23 kVA=1.9994 irradiance=1 Pmpp=1.9994 %cutin=0.1 %cutout=0.1 yearly=PV_35
New PVSystem.PV_SYS_36 phases=1 bus1=676.2 kV=0.23 kVA=1.9994 irradiance=1 Pmpp=1.9994 %cutin=0.1 %cutout=0.1 yearly=PV_36
New PVSystem.PV_SYS_37 phases=1 bus1=682.2 kV=0.23 kVA=1.9994 irradiance=1 Pmpp=1.9994 %cutin=0.1 %cutout=0.1 yearly=PV_37
New PVSystem.PV_SYS_38 phases=1 bus1=688.2 kV=0.23 kVA=1.9994 irradiance=1 Pmpp=1.9994 %cutin=0.1 %cutout=0.1 yearly=PV_38
New PVSystem.PV_SYS_39 phases=1 bus1=701.3 kV=0.23 kVA=1.9994 irradiance=1 Pmpp=1.9994 %cutin=0.1 %cutout=0.1 yearly=PV_39
New PVSystem.PV_SYS_40 phases=1 bus1=702.2 kV=0.23 kVA=1.9994 irradiance=1 Pmpp=1.9994 %cutin=0.1 %cutout=0.1 yearly=PV_40
New PVSystem.PV_SYS_41 phases=1 bus1=755.2 kV=0.23 kVA=1.9994 irradiance=1 Pmpp=1.9994 %cutin=0.1 %cutout=0.1 yearly=PV_41
New PVSystem.PV_SYS_42 phases=1 bus1=778.3 kV=0.23 kVA=1.9994 irradiance=1 Pmpp=1.9994 %cutin=0.1 %cutout=0.1 yearly=PV_42
New PVSystem.PV_SYS_43 phases=1 bus1=780.3 kV=0.23 kVA=1.9994 irradiance=1 Pmpp=1.9994 %cutin=0.1 %cutout=0.1 yearly=PV_43
New PVSystem.PV_SYS_44 phases=1 bus1=785.2 kV=0.23 kVA=1.9994 irradiance=1 Pmpp=1.9994 %cutin=0.1 %cutout=0.1 yearly=PV_44
New PVSystem.PV_SYS_45 phases=1 bus1=813.2 kV=0.23 kVA=1.9994 irradiance=1 Pmpp=1.9994 %cutin=0.1 %cutout=0.1 yearly=PV_45
New PVSystem.PV_SYS_46 phases=1 bus1=817.1 kV=0.23 kVA=1.9994 irradiance=1 Pmpp=1.9994 %cutin=0.1 %cutout=0.1 yearly=PV_46
New PVSystem.PV_SYS_47 phases=1 bus1=835.3 kV=0.23 kVA=1.9994 irradiance=1 Pmpp=1.9994 %cutin=0.1 %cutout=0.1 yearly=PV_47
New PVSystem.PV_SYS_48 phases=1 bus1=860.1 kV=0.23 kVA=1.9994 irradiance=1 Pmpp=1.9994 %cutin=0.1 %cutout=0.1 yearly=PV_48
New PVSystem.PV_SYS_49 phases=1 bus1=861.1 kV=0.23 kVA=1.9994 irradiance=1 Pmpp=1.9994 %cutin=0.1 %cutout=0.1 yearly=PV_49
New PVSystem.PV_SYS_50 phases=1 bus1=886.2 kV=0.23 kVA=1.9994 irradiance=1 Pmpp=1.9994 %cutin=0.1 %cutout=0.1 yearly=PV_50
New PVSystem.PV_SYS_51 phases=1 bus1=896.1 kV=0.23 kVA=1.9994 irradiance=1 Pmpp=1.9994 %cutin=0.1 %cutout=0.1 yearly=PV_51
New PVSystem.PV_SYS_52 phases=1 bus1=898.1 kV=0.23 kVA=1.9994 irradiance=1 Pmpp=1.9994 %cutin=0.1 %cutout=0.1 yearly=PV_52
New PVSystem.PV_SYS_53 phases=1 bus1=899.2 kV=0.23 kVA=1.9994 irradiance=1 Pmpp=1.9994 %cutin=0.1 %cutout=0.1 yearly=PV_53
New PVSystem.PV_SYS_54 phases=1 bus1=900.1 kV=0.23 kVA=1.9994 irradiance=1 Pmpp=1.9994 %cutin=0.1 %cutout=0.1 yearly=PV_54
New PVSystem.PV_SYS_55 phases=1 bus1=906.1 kV=0.23 kVA=1.9994 irradiance=1 Pmpp=1.9994 %cutin=0.1 %cutout=0.1 yearly=PV_55